L24/1726537/GD.dss
! GERACAO DISTRIBUIDA — gerada de UGBT_tab e UGMT_tab
! Unidades com potencia nula sao omitidas (gerariam NaN).
! 102 unidades descartadas por potencia nula.
! 494 unidades de BT realocadas para o secundario do transformador (rede secundaria nao modelada).
! 0 unidades descartadas por ponto de conexao ausente da rede.
! irradiance=1 — ver o docstring: 1,0 e meio-dia de ceu claro, nao a ponta de carga.
! 2 barras tiveram a GD limitada a capacidade do transformador (42 kW cortados).
! inversores em pf=1 — ver o docstring de _pv: 0,92 e capacidade exigida pelo PRODIST, nao despacho.
! 0 unidades de MT ligadas pelo PAC da carga (casadas por CEG_GD): o PAC da UGMT nao existe na SSDMT.
New PVSystem.GD_503c62d850d48aaacdbc3cd8d6287b5947e0885f19b75575a41e6f6416f95716 phases=3 bus1=node_113428598.1.2.3 conn=wye kv=13.8000 pf=1 pmpp=28.40 kva=28.40 irradiance=1 temperature=25 %cutin=20 %cutout=20 effcurve=MyEff P-TCurve=MyPvsT Daily=IRRAD_DIA TDaily=TEMP_DIA
New PVSystem.GD_9d043e146b7dcd0bf7d274ce0b7de530413ab16e32a5f346f09285cd53d5da11 phases=3 bus1=node_107452966.1.2.3 conn=wye kv=13.8000 pf=1 pmpp=7.10 kva=7.10 irradiance=1 temperature=25 %cutin=20 %cutout=20 effcurve=MyEff P-TCurve=MyPvsT Daily=IRRAD_DIA TDaily=TEMP_DIA
New PVSystem.GD_c431fec0c22b723d7743737dcada2d1077f13d52c21498faf5e04e09070b00c5 phases=3 bus1=node_109914881.1.2.3 conn=wye kv=13.8000 pf=1 pmpp=49.13 kva=49.13 irradiance=1 temperature=25 %cutin=20 %cutout=20 effcurve=MyEff P-TCurve=MyPvsT Daily=IRRAD_DIA TDaily=TEMP_DIA
New PVSystem.GD_18b3292dafa4e563777958f1cd64b9416a61a6fe9b8889e3be895b511bd81f10 phases=3 bus1=node_107686858.1.2.3 conn=wye kv=13.8000 pf=1 pmpp=41.62 kva=41.62 irradiance=1 temperature=25 %cutin=20 %cutout=20 effcurve=MyEff P-TCurve=MyPvsT Daily=IRRAD_DIA TDaily=TEMP_DIA
New PVSystem.GD_d2b588007442665b6295f9e5f4e089bae88205e53913cb2b545940100921fd94 phases=3 bus1=node_2971100363.1.2.3 conn=wye kv=13.8000 pf=1 pmpp=139.16 kva=139.16 irradiance=1 temperature=25 %cutin=20 %cutout=20 effcurve=MyEff P-TCurve=MyPvsT Daily=IRRAD_DIA TDaily=TEMP_DIA
New PVSystem.GD_9c564fc0ab1cc2c73dc37e0fc948b1bd782e225fa64ffdcf80d1f67921646eac phases=3 bus1=node_1689876504.1.2.3 conn=wye kv=13.8000 pf=1 pmpp=1757.06 kva=1757.06 irradiance=1 temperature=25 %cutin=20 %cutout=20 effcurve=MyEff P-TCurve=MyPvsT Daily=IRRAD_DIA TDaily=TEMP_DIA
New PVSystem.GD_5d632b2a6de0ef8a17afdb3f872a021c3c337d3f01176c9e88df3e460847baac_1 phases=1 bus1=node_411147622.1.4 conn=wye kv=0.1270 pf=1 pmpp=2.04 kva=2.04 irradiance=1 temperature=25 %cutin=20 %cutout=20 effcurve=MyEff P-TCurve=MyPvsT Daily=IRRAD_DIA TDaily=TEMP_DIA
New PVSystem.GD_5d632b2a6de0ef8a17afdb3f872a021c3c337d3f01176c9e88df3e460847baac_2 phases=1 bus1=node_411147622.2.4 conn=wye kv=0.1270 pf=1 pmpp=2.04 kva=2.04 irradiance=1 temperature=25 %cutin=20 %cutout=20 effcurve=MyEff P-TCurve=MyPvsT Daily=IRRAD_DIA TDaily=TEMP_DIA
New PVSystem.GD_5d632b2a6de0ef8a17afdb3f872a021c3c337d3f01176c9e88df3e460847baac_3 phases=1 bus1=node_411147622.3.4 conn=wye kv=0.1270 pf=1 pmpp=2.04 kva=2.04 irradiance=1 temperature=25 %cutin=20 %cutout=20 effcurve=MyEff P-TCurve=MyPvsT Daily=IRRAD_DIA TDaily=TEMP_DIA
New PVSystem.GD_fc3ff1b49a07693c239a489164e8e1266714ce9db61a96514443d9e89368f1d3_1 phases=1 bus1=node_404863611.1.4 conn=wye kv=0.1270 pf=1 pmpp=0.48 kva=0.48 irradiance=1 temperature=25 %cutin=20 %cutout=20 effcurve=MyEff P-TCurve=MyPvsT Daily=IRRAD_DIA TDaily=TEMP_DIA
New PVSystem.GD_fc3ff1b49a07693c239a489164e8e1266714ce9db61a96514443d9e89368f1d3_2 phases=1 bus1=node_404863611.2.4 conn=wye kv=0.1270 pf=1 pmpp=0.48 kva=0.48 irradiance=1 temperature=25 %cutin=20 %cutout=20 effcurve=MyEff P-TCurve=MyPvsT Daily=IRRAD_DIA TDaily=TEMP_DIA
New PVSystem.GD_fc3ff1b49a07693c239a489164e8e1266714ce9db61a96514443d9e89368f1d3_3 phases=1 bus1=node_404863611.3.4 conn=wye kv=0.1270 pf=1 pmpp=0.48 kva=0.48 irradiance=1 temperature=25 %cutin=20 %cutout=20 effcurve=MyEff P-TCurve=MyPvsT Daily=IRRAD_DIA TDaily=TEMP_DIA
New PVSystem.GD_8c2e9145dd744cb583a32588bbcd4794fa626810e3bf3a7bbc3a7dc193de9c38_1 phases=1 bus1=node_404863611.1.4 conn=wye kv=0.1270 pf=1 pmpp=1.05 kva=1.05 irradiance=1 temperature=25 %cutin=20 %cutout=20 effcurve=MyEff P-TCurve=MyPvsT Daily=IRRAD_DIA TDaily=TEMP_DIA
New PVSystem.GD_8c2e9145dd744cb583a32588bbcd4794fa626810e3bf3a7bbc3a7dc193de9c38_2 phases=1 bus1=node_404863611.2.4 conn=wye kv=0.1270 pf=1 pmpp=1.05 kva=1.05 irradiance=1 temperature=25 %cutin=20 %cutout=20 effcurve=MyEff P-TCurve=MyPvsT Daily=IRRAD_DIA TDaily=TEMP_DIA
New PVSystem.GD_8c2e9145dd744cb583a32588bbcd4794fa626810e3bf3a7bbc3a7dc193de9c38_3 phases=1 bus1=node_404863611.3.4 conn=wye kv=0.1270 pf=1 pmpp=1.05 kva=1.05 irradiance=1 temperature=25 %cutin=20 %cutout=20 effcurve=MyEff P-TCurve=MyPvsT Daily=IRRAD_DIA TDaily=TEMP_DIA
New PVSystem.GD_9d1288d0bbc8ed05635ecc58a356a0159d71ab5ca788ccc5632e7455f6b4198f_1 phases=1 bus1=node_404863611.1.4 conn=wye kv=0.1270 pf=1 pmpp=0.66 kva=0.66 irradiance=1 temperature=25 %cutin=20 %cutout=20 effcurve=MyEff P-TCurve=MyPvsT Daily=IRRAD_DIA TDaily=TEMP_DIA
New PVSystem.GD_9d1288d0bbc8ed05635ecc58a356a0159d71ab5ca788ccc5632e7455f6b4198f_2 phases=1 bus1=node_404863611.2.4 conn=wye kv=0.1270 pf=1 pmpp=0.66 kva=0.66 irradiance=1 temperature=25 %cutin=20 %cutout=20 effcurve=MyEff P-TCurve=MyPvsT Daily=IRRAD_DIA TDaily=TEMP_DIA
New PVSystem.GD_9d1288d0bbc8ed05635ecc58a356a0159d71ab5ca788ccc5632e7455f6b4198f_3 phases=1 bus1=node_404863611.3.4 conn=wye kv=0.1270 pf=1 pmpp=0.66 kva=0.66 irradiance=1 temperature=25 %cutin=20 %cutout=20 effcurve=MyEff P-TCurve=MyPvsT Daily=IRRAD_DIA TDaily=TEMP_DIA
New PVSystem.GD_9977f062fd37ed1e4f3e50f9728465150c6a415038f194293a1acc5e9607867a_1 phases=1 bus1=node_404863611.1.4 conn=wye kv=0.1270 pf=1 pmpp=0.04 kva=0.10 irradiance=1 temperature=25 %cutin=20 %cutout=20 effcurve=MyEff P-TCurve=MyPvsT Daily=IRRAD_DIA TDaily=TEMP_DIA
New PVSystem.GD_9977f062fd37ed1e4f3e50f9728465150c6a415038f194293a1acc5e9607867a_2 phases=1 bus1=node_404863611.2.4 conn=wye kv=0.1270 pf=1 pmpp=0.04 kva=0.10 irradiance=1 temperature=25 %cutin=20 %cutout=20 effcurve=MyEff P-TCurve=MyPvsT Daily=IRRAD_DIA TDaily=TEMP_DIA
New PVSystem.GD_9977f062fd37ed1e4f3e50f9728465150c6a415038f194293a1acc5e9607867a_3 phases=1 bus1=node_404863611.3.4 conn=wye kv=0.1270 pf=1 pmpp=0.04 kva=0.10 irradiance=1 temperature=25 %cutin=20 %cutout=20 effcurve=MyEff P-TCurve=MyPvsT Daily=IRRAD_DIA TDaily=TEMP_DIA
New PVSystem.GD_1bc19da557ced869fb6e228937ff4f21f0f4bb9a4fed466d18a74cfd4e3a06cd_1 phases=1 bus1=node_404863611.1.4 conn=wye kv=0.1270 pf=1 pmpp=0.27 kva=0.27 irradiance=1 temperature=25 %cutin=20 %cutout=20 effcurve=MyEff P-TCurve=MyPvsT Daily=IRRAD_DIA TDaily=TEMP_DIA
New PVSystem.GD_1bc19da557ced869fb6e228937ff4f21f0f4bb9a4fed466d18a74cfd4e3a06cd_2 phases=1 bus1=node_404863611.2.4 conn=wye kv=0.1270 pf=1 pmpp=0.27 kva=0.27 irradiance=1 temperature=25 %cutin=20 %cutout=20 effcurve=MyEff P-TCurve=MyPvsT Daily=IRRAD_DIA TDaily=TEMP_DIA
New PVSystem.GD_1bc19da557ced869fb6e228937ff4f21f0f4bb9a4fed466d18a74cfd4e3a06cd_3 phases=1 bus1=node_404863611.3.4 conn=wye kv=0.1270 pf=1 pmpp=0.27 kva=0.27 irradiance=1 temperature=25 %cutin=20 %cutout=20 effcurve=MyEff P-TCurve=MyPvsT Daily=IRRAD_DIA TDaily=TEMP_DIA
New PVSystem.GD_d248d5721fbb3d44db2a23477b54776ed07a581a541d1b5d592a0a08437d0acd_1 phases=1 bus1=node_404862807.1.4 conn=wye kv=0.1270 pf=1 pmpp=0.76 kva=0.76 irradiance=1 temperature=25 %cutin=20 %cutout=20 effcurve=MyEff P-TCurve=MyPvsT Daily=IRRAD_DIA TDaily=TEMP_DIA
New PVSystem.GD_d248d5721fbb3d44db2a23477b54776ed07a581a541d1b5d592a0a08437d0acd_2 phases=1 bus1=node_404862807.2.4 conn=wye kv=0.1270 pf=1 pmpp=0.76 kva=0.76 irradiance=1 temperature=25 %cutin=20 %cutout=20 effcurve=MyEff P-TCurve=MyPvsT Daily=IRRAD_DIA TDaily=TEMP_DIA
New PVSystem.GD_d248d5721fbb3d44db2a23477b54776ed07a581a541d1b5d592a0a08437d0acd_3 phases=1 bus1=node_404862807.3.4 conn=wye kv=0.1270 pf=1 pmpp=0.76 kva=0.76 irradiance=1 temperature=25 %cutin=20 %cutout=20 effcurve=MyEff P-TCurve=MyPvsT Daily=IRRAD_DIA TDaily=TEMP_DIA
New PVSystem.GD_2dda1e15420ffa8962d211a40473f2cb1bb02e4600adf167b379e3625d3e2d45_1 phases=1 bus1=node_407554781.1.4 conn=wye kv=0.1270 pf=1 pmpp=0.20 kva=0.20 irradiance=1 temperature=25 %cutin=20 %cutout=20 effcurve=MyEff P-TCurve=MyPvsT Daily=IRRAD_DIA TDaily=TEMP_DIA
New PVSystem.GD_2dda1e15420ffa8962d211a40473f2cb1bb02e4600adf167b379e3625d3e2d45_2 phases=1 bus1=node_407554781.2.4 conn=wye kv=0.1270 pf=1 pmpp=0.20 kva=0.20 irradiance=1 temperature=25 %cutin=20 %cutout=20 effcurve=MyEff P-TCurve=MyPvsT Daily=IRRAD_DIA TDaily=TEMP_DIA
New PVSystem.GD_2dda1e15420ffa8962d211a40473f2cb1bb02e4600adf167b379e3625d3e2d45_3 phases=1 bus1=node_407554781.3.4 conn=wye kv=0.1270 pf=1 pmpp=0.20 kva=0.20 irradiance=1 temperature=25 %cutin=20 %cutout=20 effcurve=MyEff P-TCurve=MyPvsT Daily=IRRAD_DIA TDaily=TEMP_DIA
New PVSystem.GD_eded5d48143d743b4b5dad8e1ee990f245bb048404d53b0a25b65a2064f1ddc0_1 phases=1 bus1=node_407554781.1.4 conn=wye kv=0.1270 pf=1 pmpp=0.49 kva=0.49 irradiance=1 temperature=25 %cutin=20 %cutout=20 effcurve=MyEff P-TCurve=MyPvsT Daily=IRRAD_DIA TDaily=TEMP_DIA
New PVSystem.GD_eded5d48143d743b4b5dad8e1ee990f245bb048404d53b0a25b65a2064f1ddc0_2 phases=1 bus1=node_407554781.2.4 conn=wye kv=0.1270 pf=1 pmpp=0.49 kva=0.49 irradiance=1 temperature=25 %cutin=20 %cutout=20 effcurve=MyEff P-TCurve=MyPvsT Daily=IRRAD_DIA TDaily=TEMP_DIA
New PVSystem.GD_eded5d48143d743b4b5dad8e1ee990f245bb048404d53b0a25b65a2064f1ddc0_3 phases=1 bus1=node_407554781.3.4 conn=wye kv=0.1270 pf=1 pmpp=0.49 kva=0.49 irradiance=1 temperature=25 %cutin=20 %cutout=20 effcurve=MyEff P-TCurve=MyPvsT Daily=IRRAD_DIA TDaily=TEMP_DIA
New PVSystem.GD_3d2d397b6ffea3333e99bef3c7a9d62806e68eb39c54c6dd21c7117fe0ff3a0e_1 phases=1 bus1=node_418706566.1.4 conn=wye kv=0.1270 pf=1 pmpp=0.51 kva=0.51 irradiance=1 temperature=25 %cutin=20 %cutout=20 effcurve=MyEff P-TCurve=MyPvsT Daily=IRRAD_DIA TDaily=TEMP_DIA
New PVSystem.GD_3d2d397b6ffea3333e99bef3c7a9d62806e68eb39c54c6dd21c7117fe0ff3a0e_2 phases=1 bus1=node_418706566.2.4 conn=wye kv=0.1270 pf=1 pmpp=0.51 kva=0.51 irradiance=1 temperature=25 %cutin=20 %cutout=20 effcurve=MyEff P-TCurve=MyPvsT Daily=IRRAD_DIA TDaily=TEMP_DIA
New PVSystem.GD_3d2d397b6ffea3333e99bef3c7a9d62806e68eb39c54c6dd21c7117fe0ff3a0e_3 phases=1 bus1=node_418706566.3.4 conn=wye kv=0.1270 pf=1 pmpp=0.51 kva=0.51 irradiance=1 temperature=25 %cutin=20 %cutout=20 effcurve=MyEff P-TCurve=MyPvsT Daily=IRRAD_DIA TDaily=TEMP_DIA
New PVSystem.GD_cb8ecdc1c90614157431e3fac040881d488fbcfe04d7a20de7ca9a9c232c995b_1 phases=1 bus1=node_407846989.1.4 conn=wye kv=0.1270 pf=1 pmpp=0.82 kva=0.82 irradiance=1 temperature=25 %cutin=20 %cutout=20 effcurve=MyEff P-TCurve=MyPvsT Daily=IRRAD_DIA TDaily=TEMP_DIA
New PVSystem.GD_cb8ecdc1c90614157431e3fac040881d488fbcfe04d7a20de7ca9a9c232c995b_2 phases=1 bus1=node_407846989.2.4 conn=wye kv=0.1270 pf=1 pmpp=0.82 kva=0.82 irradiance=1 temperature=25 %cutin=20 %cutout=20 effcurve=MyEff P-TCurve=MyPvsT Daily=IRRAD_DIA TDaily=TEMP_DIA
New PVSystem.GD_cb8ecdc1c90614157431e3fac040881d488fbcfe04d7a20de7ca9a9c232c995b_3 phases=1 bus1=node_407846989.3.4 conn=wye kv=0.1270 pf=1 pmpp=0.82 kva=0.82 irradiance=1 temperature=25 %cutin=20 %cutout=20 effcurve=MyEff P-TCurve=MyPvsT Daily=IRRAD_DIA TDaily=TEMP_DIA
New PVSystem.GD_c816ee18311f8d897c481820d8b8ec51840b5837c92e6306091b4153fabafd95_1 phases=1 bus1=node_407846989.1.4 conn=wye kv=0.1270 pf=1 pmpp=0.36 kva=0.36 irradiance=1 temperature=25 %cutin=20 %cutout=20 effcurve=MyEff P-TCurve=MyPvsT Daily=IRRAD_DIA TDaily=TEMP_DIA
New PVSystem.GD_c816ee18311f8d897c481820d8b8ec51840b5837c92e6306091b4153fabafd95_2 phases=1 bus1=node_407846989.2.4 conn=wye kv=0.1270 pf=1 pmpp=0.36 kva=0.36 irradiance=1 temperature=25 %cutin=20 %cutout=20 effcurve=MyEff P-TCurve=MyPvsT Daily=IRRAD_DIA TDaily=TEMP_DIA
New PVSystem.GD_c816ee18311f8d897c481820d8b8ec51840b5837c92e6306091b4153fabafd95_3 phases=1 bus1=node_407846989.3.4 conn=wye kv=0.1270 pf=1 pmpp=0.36 kva=0.36 irradiance=1 temperature=25 %cutin=20 %cutout=20 effcurve=MyEff P-TCurve=MyPvsT Daily=IRRAD_DIA TDaily=TEMP_DIA
New PVSystem.GD_ccca8af3eeab47095d44e54a6ae5340f491f97d583414062e070676821adc6c6_1 phases=1 bus1=node_407846989.1.4 conn=wye kv=0.1270 pf=1 pmpp=0.08 kva=0.10 irradiance=1 temperature=25 %cutin=20 %cutout=20 effcurve=MyEff P-TCurve=MyPvsT Daily=IRRAD_DIA TDaily=TEMP_DIA
New PVSystem.GD_ccca8af3eeab47095d44e54a6ae5340f491f97d583414062e070676821adc6c6_2 phases=1 bus1=node_407846989.2.4 conn=wye kv=0.1270 pf=1 pmpp=0.08 kva=0.10 irradiance=1 temperature=25 %cutin=20 %cutout=20 effcurve=MyEff P-TCurve=MyPvsT Daily=IRRAD_DIA TDaily=TEMP_DIA
New PVSystem.GD_ccca8af3eeab47095d44e54a6ae5340f491f97d583414062e070676821adc6c6_3 phases=1 bus1=node_407846989.3.4 conn=wye kv=0.1270 pf=1 pmpp=0.08 kva=0.10 irradiance=1 temperature=25 %cutin=20 %cutout=20 effcurve=MyEff P-TCurve=MyPvsT Daily=IRRAD_DIA TDaily=TEMP_DIA
New PVSystem.GD_9ac021a3d6d1dccbf3fa70d6a669b07dd1fc9aeedb22b6138fe25922d9a9d812_1 phases=1 bus1=node_407846989.1.4 conn=wye kv=0.1270 pf=1 pmpp=1.53 kva=1.53 irradiance=1 temperature=25 %cutin=20 %cutout=20 effcurve=MyEff P-TCurve=MyPvsT Daily=IRRAD_DIA TDaily=TEMP_DIA
New PVSystem.GD_9ac021a3d6d1dccbf3fa70d6a669b07dd1fc9aeedb22b6138fe25922d9a9d812_2 phases=1 bus1=node_407846989.2.4 conn=wye kv=0.1270 pf=1 pmpp=1.53 kva=1.53 irradiance=1 temperature=25 %cutin=20 %cutout=20 effcurve=MyEff P-TCurve=MyPvsT Daily=IRRAD_DIA TDaily=TEMP_DIA
New PVSystem.GD_9ac021a3d6d1dccbf3fa70d6a669b07dd1fc9aeedb22b6138fe25922d9a9d812_3 phases=1 bus1=node_407846989.3.4 conn=wye kv=0.1270 pf=1 pmpp=1.53 kva=1.53 irradiance=1 temperature=25 %cutin=20 %cutout=20 effcurve=MyEff P-TCurve=MyPvsT Daily=IRRAD_DIA TDaily=TEMP_DIA
New PVSystem.GD_0e1a25492d956f73f9466609c8d4978501e8eb41bbd8be131f4c17e3814713cf_1 phases=1 bus1=node_407846065.1.4 conn=wye kv=0.1270 pf=1 pmpp=0.38 kva=0.38 irradiance=1 temperature=25 %cutin=20 %cutout=20 effcurve=MyEff P-TCurve=MyPvsT Daily=IRRAD_DIA TDaily=TEMP_DIA
New PVSystem.GD_0e1a25492d956f73f9466609c8d4978501e8eb41bbd8be131f4c17e3814713cf_2 phases=1 bus1=node_407846065.2.4 conn=wye kv=0.1270 pf=1 pmpp=0.38 kva=0.38 irradiance=1 temperature=25 %cutin=20 %cutout=20 effcurve=MyEff P-TCurve=MyPvsT Daily=IRRAD_DIA TDaily=TEMP_DIA
New PVSystem.GD_0e1a25492d956f73f9466609c8d4978501e8eb41bbd8be131f4c17e3814713cf_3 phases=1 bus1=node_407846065.3.4 conn=wye kv=0.1270 pf=1 pmpp=0.38 kva=0.38 irradiance=1 temperature=25 %cutin=20 %cutout=20 effcurve=MyEff P-TCurve=MyPvsT Daily=IRRAD_DIA TDaily=TEMP_DIA
New PVSystem.GD_186e4f09dd093cd64580bb51d390e0626758377d84bc767b9e2a440f21e15fb6_1 phases=1 bus1=node_407846065.1.4 conn=wye kv=0.1270 pf=1 pmpp=4.69 kva=4.69 irradiance=1 temperature=25 %cutin=20 %cutout=20 effcurve=MyEff P-TCurve=MyPvsT Daily=IRRAD_DIA TDaily=TEMP_DIA
New PVSystem.GD_186e4f09dd093cd64580bb51d390e0626758377d84bc767b9e2a440f21e15fb6_2 phases=1 bus1=node_407846065.2.4 conn=wye kv=0.1270 pf=1 pmpp=4.69 kva=4.69 irradiance=1 temperature=25 %cutin=20 %cutout=20 effcurve=MyEff P-TCurve=MyPvsT Daily=IRRAD_DIA TDaily=TEMP_DIA
New PVSystem.GD_186e4f09dd093cd64580bb51d390e0626758377d84bc767b9e2a440f21e15fb6_3 phases=1 bus1=node_407846065.3.4 conn=wye kv=0.1270 pf=1 pmpp=4.69 kva=4.69 irradiance=1 temperature=25 %cutin=20 %cutout=20 effcurve=MyEff P-TCurve=MyPvsT Daily=IRRAD_DIA TDaily=TEMP_DIA
New PVSystem.GD_69e3d3e1aac3eed0a24f47d6b67e6008b1c4200ed037f0145772d828be41391f_1 phases=1 bus1=node_407846065.1.4 conn=wye kv=0.1270 pf=1 pmpp=2.31 kva=2.31 irradiance=1 temperature=25 %cutin=20 %cutout=20 effcurve=MyEff P-TCurve=MyPvsT Daily=IRRAD_DIA TDaily=TEMP_DIA
New PVSystem.GD_69e3d3e1aac3eed0a24f47d6b67e6008b1c4200ed037f0145772d828be41391f_2 phases=1 bus1=node_407846065.2.4 conn=wye kv=0.1270 pf=1 pmpp=2.31 kva=2.31 irradiance=1 temperature=25 %cutin=20 %cutout=20 effcurve=MyEff P-TCurve=MyPvsT Daily=IRRAD_DIA TDaily=TEMP_DIA
New PVSystem.GD_69e3d3e1aac3eed0a24f47d6b67e6008b1c4200ed037f0145772d828be41391f_3 phases=1 bus1=node_407846065.3.4 conn=wye kv=0.1270 pf=1 pmpp=2.31 kva=2.31 irradiance=1 temperature=25 %cutin=20 %cutout=20 effcurve=MyEff P-TCurve=MyPvsT Daily=IRRAD_DIA TDaily=TEMP_DIA
New PVSystem.GD_50ccbc42d23b2e846fccbd1fbbd4c2d9ab8a68e7edd3edcdf836b3466f4f2400_1 phases=1 bus1=node_407846065.1.4 conn=wye kv=0.1270 pf=1 pmpp=2.03 kva=2.03 irradiance=1 temperature=25 %cutin=20 %cutout=20 effcurve=MyEff P-TCurve=MyPvsT Daily=IRRAD_DIA TDaily=TEMP_DIA
New PVSystem.GD_50ccbc42d23b2e846fccbd1fbbd4c2d9ab8a68e7edd3edcdf836b3466f4f2400_2 phases=1 bus1=node_407846065.2.4 conn=wye kv=0.1270 pf=1 pmpp=2.03 kva=2.03 irradiance=1 temperature=25 %cutin=20 %cutout=20 effcurve=MyEff P-TCurve=MyPvsT Daily=IRRAD_DIA TDaily=TEMP_DIA
New PVSystem.GD_50ccbc42d23b2e846fccbd1fbbd4c2d9ab8a68e7edd3edcdf836b3466f4f2400_3 phases=1 bus1=node_407846065.3.4 conn=wye kv=0.1270 pf=1 pmpp=2.03 kva=2.03 irradiance=1 temperature=25 %cutin=20 %cutout=20 effcurve=MyEff P-TCurve=MyPvsT Daily=IRRAD_DIA TDaily=TEMP_DIA
New PVSystem.GD_966fe4fbefdcdcd23146ae381b497fac547466c556c2ec11417fd7f06c0b06d6_1 phases=1 bus1=node_407846065.1.4 conn=wye kv=0.1270 pf=1 pmpp=3.02 kva=3.02 irradiance=1 temperature=25 %cutin=20 %cutout=20 effcurve=MyEff P-TCurve=MyPvsT Daily=IRRAD_DIA TDaily=TEMP_DIA
New PVSystem.GD_966fe4fbefdcdcd23146ae381b497fac547466c556c2ec11417fd7f06c0b06d6_2 phases=1 bus1=node_407846065.2.4 conn=wye kv=0.1270 pf=1 pmpp=3.02 kva=3.02 irradiance=1 temperature=25 %cutin=20 %cutout=20 effcurve=MyEff P-TCurve=MyPvsT Daily=IRRAD_DIA TDaily=TEMP_DIA
New PVSystem.GD_966fe4fbefdcdcd23146ae381b497fac547466c556c2ec11417fd7f06c0b06d6_3 phases=1 bus1=node_407846065.3.4 conn=wye kv=0.1270 pf=1 pmpp=3.02 kva=3.02 irradiance=1 temperature=25 %cutin=20 %cutout=20 effcurve=MyEff P-TCurve=MyPvsT Daily=IRRAD_DIA TDaily=TEMP_DIA
New PVSystem.GD_9d158e60d56c71487af6af2579375efe716c0742e33b010052481a87c44706bb_1 phases=1 bus1=node_407556032.1.4 conn=wye kv=0.1270 pf=1 pmpp=0.33 kva=0.33 irradiance=1 temperature=25 %cutin=20 %cutout=20 effcurve=MyEff P-TCurve=MyPvsT Daily=IRRAD_DIA TDaily=TEMP_DIA
New PVSystem.GD_9d158e60d56c71487af6af2579375efe716c0742e33b010052481a87c44706bb_2 phases=1 bus1=node_407556032.2.4 conn=wye kv=0.1270 pf=1 pmpp=0.33 kva=0.33 irradiance=1 temperature=25 %cutin=20 %cutout=20 effcurve=MyEff P-TCurve=MyPvsT Daily=IRRAD_DIA TDaily=TEMP_DIA
New PVSystem.GD_9d158e60d56c71487af6af2579375efe716c0742e33b010052481a87c44706bb_3 phases=1 bus1=node_407556032.3.4 conn=wye kv=0.1270 pf=1 pmpp=0.33 kva=0.33 irradiance=1 temperature=25 %cutin=20 %cutout=20 effcurve=MyEff P-TCurve=MyPvsT Daily=IRRAD_DIA TDaily=TEMP_DIA
New PVSystem.GD_8b2061797c6a11fde5b202bd200cab73913ff5a197eafabb3cc43bf818d73803_1 phases=1 bus1=node_404862276.1.4 conn=wye kv=0.1270 pf=1 pmpp=0.75 kva=0.75 irradiance=1 temperature=25 %cutin=20 %cutout=20 effcurve=MyEff P-TCurve=MyPvsT Daily=IRRAD_DIA TDaily=TEMP_DIA
New PVSystem.GD_8b2061797c6a11fde5b202bd200cab73913ff5a197eafabb3cc43bf818d73803_2 phases=1 bus1=node_404862276.2.4 conn=wye kv=0.1270 pf=1 pmpp=0.75 kva=0.75 irradiance=1 temperature=25 %cutin=20 %cutout=20 effcurve=MyEff P-TCurve=MyPvsT Daily=IRRAD_DIA TDaily=TEMP_DIA
New PVSystem.GD_8b2061797c6a11fde5b202bd200cab73913ff5a197eafabb3cc43bf818d73803_3 phases=1 bus1=node_404862276.3.4 conn=wye kv=0.1270 pf=1 pmpp=0.75 kva=0.75 irradiance=1 temperature=25 %cutin=20 %cutout=20 effcurve=MyEff P-TCurve=MyPvsT Daily=IRRAD_DIA TDaily=TEMP_DIA
New PVSystem.GD_447202cd81dc2f613ddf2c743885bde7a1ba9041dca50ecedf4dc2c08a15e6b1_1 phases=1 bus1=node_407845906.1.4 conn=wye kv=0.1270 pf=1 pmpp=0.64 kva=0.64 irradiance=1 temperature=25 %cutin=20 %cutout=20 effcurve=MyEff P-TCurve=MyPvsT Daily=IRRAD_DIA TDaily=TEMP_DIA
New PVSystem.GD_447202cd81dc2f613ddf2c743885bde7a1ba9041dca50ecedf4dc2c08a15e6b1_2 phases=1 bus1=node_407845906.2.4 conn=wye kv=0.1270 pf=1 pmpp=0.64 kva=0.64 irradiance=1 temperature=25 %cutin=20 %cutout=20 effcurve=MyEff P-TCurve=MyPvsT Daily=IRRAD_DIA TDaily=TEMP_DIA
New PVSystem.GD_447202cd81dc2f613ddf2c743885bde7a1ba9041dca50ecedf4dc2c08a15e6b1_3 phases=1 bus1=node_407845906.3.4 conn=wye kv=0.1270 pf=1 pmpp=0.64 kva=0.64 irradiance=1 temperature=25 %cutin=20 %cutout=20 effcurve=MyEff P-TCurve=MyPvsT Daily=IRRAD_DIA TDaily=TEMP_DIA
New PVSystem.GD_8c7d24180f82d780ace6663354145245eaaa6712b613d28801caaffb8fb686ee_1 phases=1 bus1=node_407845906.1.4 conn=wye kv=0.1270 pf=1 pmpp=0.59 kva=0.59 irradiance=1 temperature=25 %cutin=20 %cutout=20 effcurve=MyEff P-TCurve=MyPvsT Daily=IRRAD_DIA TDaily=TEMP_DIA
New PVSystem.GD_8c7d24180f82d780ace6663354145245eaaa6712b613d28801caaffb8fb686ee_2 phases=1 bus1=node_407845906.2.4 conn=wye kv=0.1270 pf=1 pmpp=0.59 kva=0.59 irradiance=1 temperature=25 %cutin=20 %cutout=20 effcurve=MyEff P-TCurve=MyPvsT Daily=IRRAD_DIA TDaily=TEMP_DIA
New PVSystem.GD_8c7d24180f82d780ace6663354145245eaaa6712b613d28801caaffb8fb686ee_3 phases=1 bus1=node_407845906.3.4 conn=wye kv=0.1270 pf=1 pmpp=0.59 kva=0.59 irradiance=1 temperature=25 %cutin=20 %cutout=20 effcurve=MyEff P-TCurve=MyPvsT Daily=IRRAD_DIA TDaily=TEMP_DIA
New PVSystem.GD_8d5f18b13968ca3d1def396d95502d0e6611cd1c93f9ac430d1cadf35e02fcf8_1 phases=1 bus1=node_407845906.1.4 conn=wye kv=0.1270 pf=1 pmpp=1.74 kva=1.74 irradiance=1 temperature=25 %cutin=20 %cutout=20 effcurve=MyEff P-TCurve=MyPvsT Daily=IRRAD_DIA TDaily=TEMP_DIA
New PVSystem.GD_8d5f18b13968ca3d1def396d95502d0e6611cd1c93f9ac430d1cadf35e02fcf8_2 phases=1 bus1=node_407845906.2.4 conn=wye kv=0.1270 pf=1 pmpp=1.74 kva=1.74 irradiance=1 temperature=25 %cutin=20 %cutout=20 effcurve=MyEff P-TCurve=MyPvsT Daily=IRRAD_DIA TDaily=TEMP_DIA
New PVSystem.GD_8d5f18b13968ca3d1def396d95502d0e6611cd1c93f9ac430d1cadf35e02fcf8_3 phases=1 bus1=node_407845906.3.4 conn=wye kv=0.1270 pf=1 pmpp=1.74 kva=1.74 irradiance=1 temperature=25 %cutin=20 %cutout=20 effcurve=MyEff P-TCurve=MyPvsT Daily=IRRAD_DIA TDaily=TEMP_DIA
New PVSystem.GD_86e28b994fcd9255723539b327dc725b490f3dd44daef3ac308ef5fd02c39423_1 phases=1 bus1=node_407553908.1.4 conn=wye kv=0.1270 pf=1 pmpp=2.33 kva=2.33 irradiance=1 temperature=25 %cutin=20 %cutout=20 effcurve=MyEff P-TCurve=MyPvsT Daily=IRRAD_DIA TDaily=TEMP_DIA
New PVSystem.GD_86e28b994fcd9255723539b327dc725b490f3dd44daef3ac308ef5fd02c39423_2 phases=1 bus1=node_407553908.2.4 conn=wye kv=0.1270 pf=1 pmpp=2.33 kva=2.33 irradiance=1 temperature=25 %cutin=20 %cutout=20 effcurve=MyEff P-TCurve=MyPvsT Daily=IRRAD_DIA TDaily=TEMP_DIA
New PVSystem.GD_86e28b994fcd9255723539b327dc725b490f3dd44daef3ac308ef5fd02c39423_3 phases=1 bus1=node_407553908.3.4 conn=wye kv=0.1270 pf=1 pmpp=2.33 kva=2.33 irradiance=1 temperature=25 %cutin=20 %cutout=20 effcurve=MyEff P-TCurve=MyPvsT Daily=IRRAD_DIA TDaily=TEMP_DIA
New PVSystem.GD_14e48adc86a9e4baf4d9d2f02021add3350e7f3fe817c017449e724dab9dfca1_1 phases=1 bus1=node_407553908.1.4 conn=wye kv=0.1270 pf=1 pmpp=0.19 kva=0.19 irradiance=1 temperature=25 %cutin=20 %cutout=20 effcurve=MyEff P-TCurve=MyPvsT Daily=IRRAD_DIA TDaily=TEMP_DIA
New PVSystem.GD_14e48adc86a9e4baf4d9d2f02021add3350e7f3fe817c017449e724dab9dfca1_2 phases=1 bus1=node_407553908.2.4 conn=wye kv=0.1270 pf=1 pmpp=0.19 kva=0.19 irradiance=1 temperature=25 %cutin=20 %cutout=20 effcurve=MyEff P-TCurve=MyPvsT Daily=IRRAD_DIA TDaily=TEMP_DIA
New PVSystem.GD_14e48adc86a9e4baf4d9d2f02021add3350e7f3fe817c017449e724dab9dfca1_3 phases=1 bus1=node_407553908.3.4 conn=wye kv=0.1270 pf=1 pmpp=0.19 kva=0.19 irradiance=1 temperature=25 %cutin=20 %cutout=20 effcurve=MyEff P-TCurve=MyPvsT Daily=IRRAD_DIA TDaily=TEMP_DIA
New PVSystem.GD_d60af7ff6cfb3f06b30097ef1e78f6132257dbad1cfb346bf01fe8a67549124f_1 phases=1 bus1=node_407553908.1.4 conn=wye kv=0.1270 pf=1 pmpp=0.80 kva=0.80 irradiance=1 temperature=25 %cutin=20 %cutout=20 effcurve=MyEff P-TCurve=MyPvsT Daily=IRRAD_DIA TDaily=TEMP_DIA
New PVSystem.GD_d60af7ff6cfb3f06b30097ef1e78f6132257dbad1cfb346bf01fe8a67549124f_2 phases=1 bus1=node_407553908.2.4 conn=wye kv=0.1270 pf=1 pmpp=0.80 kva=0.80 irradiance=1 temperature=25 %cutin=20 %cutout=20 effcurve=MyEff P-TCurve=MyPvsT Daily=IRRAD_DIA TDaily=TEMP_DIA
New PVSystem.GD_d60af7ff6cfb3f06b30097ef1e78f6132257dbad1cfb346bf01fe8a67549124f_3 phases=1 bus1=node_407553908.3.4 conn=wye kv=0.1270 pf=1 pmpp=0.80 kva=0.80 irradiance=1 temperature=25 %cutin=20 %cutout=20 effcurve=MyEff P-TCurve=MyPvsT Daily=IRRAD_DIA TDaily=TEMP_DIA
New PVSystem.GD_277e8b7f24bddf6b099e1d635684840f3dc98ab1de50de0cf7a4579d9a0eceb3_1 phases=1 bus1=node_407847007.1.4 conn=wye kv=0.1270 pf=1 pmpp=0.58 kva=0.58 irradiance=1 temperature=25 %cutin=20 %cutout=20 effcurve=MyEff P-TCurve=MyPvsT Daily=IRRAD_DIA TDaily=TEMP_DIA
New PVSystem.GD_277e8b7f24bddf6b099e1d635684840f3dc98ab1de50de0cf7a4579d9a0eceb3_2 phases=1 bus1=node_407847007.2.4 conn=wye kv=0.1270 pf=1 pmpp=0.58 kva=0.58 irradiance=1 temperature=25 %cutin=20 %cutout=20 effcurve=MyEff P-TCurve=MyPvsT Daily=IRRAD_DIA TDaily=TEMP_DIA
New PVSystem.GD_277e8b7f24bddf6b099e1d635684840f3dc98ab1de50de0cf7a4579d9a0eceb3_3 phases=1 bus1=node_407847007.3.4 conn=wye kv=0.1270 pf=1 pmpp=0.58 kva=0.58 irradiance=1 temperature=25 %cutin=20 %cutout=20 effcurve=MyEff P-TCurve=MyPvsT Daily=IRRAD_DIA TDaily=TEMP_DIA
New PVSystem.GD_04ca7baf759e86c5d9b68db9911c4868a2b47648094b2cfc5c74d3c0d10ad704_1 phases=1 bus1=node_407847007.1.4 conn=wye kv=0.1270 pf=1 pmpp=1.17 kva=1.17 irradiance=1 temperature=25 %cutin=20 %cutout=20 effcurve=MyEff P-TCurve=MyPvsT Daily=IRRAD_DIA TDaily=TEMP_DIA
New PVSystem.GD_04ca7baf759e86c5d9b68db9911c4868a2b47648094b2cfc5c74d3c0d10ad704_2 phases=1 bus1=node_407847007.2.4 conn=wye kv=0.1270 pf=1 pmpp=1.17 kva=1.17 irradiance=1 temperature=25 %cutin=20 %cutout=20 effcurve=MyEff P-TCurve=MyPvsT Daily=IRRAD_DIA TDaily=TEMP_DIA
New PVSystem.GD_04ca7baf759e86c5d9b68db9911c4868a2b47648094b2cfc5c74d3c0d10ad704_3 phases=1 bus1=node_407847007.3.4 conn=wye kv=0.1270 pf=1 pmpp=1.17 kva=1.17 irradiance=1 temperature=25 %cutin=20 %cutout=20 effcurve=MyEff P-TCurve=MyPvsT Daily=IRRAD_DIA TDaily=TEMP_DIA
New PVSystem.GD_abe54aab2bd85c60adc69c4d106e53f34d48f22ced9b0c27fe3051901e0a46d0_1 phases=1 bus1=node_407847007.1.4 conn=wye kv=0.1270 pf=1 pmpp=2.92 kva=2.92 irradiance=1 temperature=25 %cutin=20 %cutout=20 effcurve=MyEff P-TCurve=MyPvsT Daily=IRRAD_DIA TDaily=TEMP_DIA
New PVSystem.GD_abe54aab2bd85c60adc69c4d106e53f34d48f22ced9b0c27fe3051901e0a46d0_2 phases=1 bus1=node_407847007.2.4 conn=wye kv=0.1270 pf=1 pmpp=2.92 kva=2.92 irradiance=1 temperature=25 %cutin=20 %cutout=20 effcurve=MyEff P-TCurve=MyPvsT Daily=IRRAD_DIA TDaily=TEMP_DIA
New PVSystem.GD_abe54aab2bd85c60adc69c4d106e53f34d48f22ced9b0c27fe3051901e0a46d0_3 phases=1 bus1=node_407847007.3.4 conn=wye kv=0.1270 pf=1 pmpp=2.92 kva=2.92 irradiance=1 temperature=25 %cutin=20 %cutout=20 effcurve=MyEff P-TCurve=MyPvsT Daily=IRRAD_DIA TDaily=TEMP_DIA
New PVSystem.GD_10f4e6b39234a04cc9b32c75e3d44b14f7c2d986a53e2f7946746f3bf6b30138_1 phases=1 bus1=node_407847007.1.4 conn=wye kv=0.1270 pf=1 pmpp=0.34 kva=0.34 irradiance=1 temperature=25 %cutin=20 %cutout=20 effcurve=MyEff P-TCurve=MyPvsT Daily=IRRAD_DIA TDaily=TEMP_DIA
New PVSystem.GD_10f4e6b39234a04cc9b32c75e3d44b14f7c2d986a53e2f7946746f3bf6b30138_2 phases=1 bus1=node_407847007.2.4 conn=wye kv=0.1270 pf=1 pmpp=0.34 kva=0.34 irradiance=1 temperature=25 %cutin=20 %cutout=20 effcurve=MyEff P-TCurve=MyPvsT Daily=IRRAD_DIA TDaily=TEMP_DIA
New PVSystem.GD_10f4e6b39234a04cc9b32c75e3d44b14f7c2d986a53e2f7946746f3bf6b30138_3 phases=1 bus1=node_407847007.3.4 conn=wye kv=0.1270 pf=1 pmpp=0.34 kva=0.34 irradiance=1 temperature=25 %cutin=20 %cutout=20 effcurve=MyEff P-TCurve=MyPvsT Daily=IRRAD_DIA TDaily=TEMP_DIA
New PVSystem.GD_b2b97ad388bd3706412693d7aa398ffa8c43a729a3470d59bdb42d3136981cd0_1 phases=1 bus1=node_418738046.1.4 conn=wye kv=0.1270 pf=1 pmpp=3.06 kva=3.06 irradiance=1 temperature=25 %cutin=20 %cutout=20 effcurve=MyEff P-TCurve=MyPvsT Daily=IRRAD_DIA TDaily=TEMP_DIA
New PVSystem.GD_b2b97ad388bd3706412693d7aa398ffa8c43a729a3470d59bdb42d3136981cd0_2 phases=1 bus1=node_418738046.2.4 conn=wye kv=0.1270 pf=1 pmpp=3.06 kva=3.06 irradiance=1 temperature=25 %cutin=20 %cutout=20 effcurve=MyEff P-TCurve=MyPvsT Daily=IRRAD_DIA TDaily=TEMP_DIA
New PVSystem.GD_b2b97ad388bd3706412693d7aa398ffa8c43a729a3470d59bdb42d3136981cd0_3 phases=1 bus1=node_418738046.3.4 conn=wye kv=0.1270 pf=1 pmpp=3.06 kva=3.06 irradiance=1 temperature=25 %cutin=20 %cutout=20 effcurve=MyEff P-TCurve=MyPvsT Daily=IRRAD_DIA TDaily=TEMP_DIA
New PVSystem.GD_2ccbf3fcc00fb52fd6e21df4b814edefc9f884780590a79d1393053bd25413f8_1 phases=1 bus1=node_418738046.1.4 conn=wye kv=0.1270 pf=1 pmpp=1.30 kva=1.30 irradiance=1 temperature=25 %cutin=20 %cutout=20 effcurve=MyEff P-TCurve=MyPvsT Daily=IRRAD_DIA TDaily=TEMP_DIA
New PVSystem.GD_2ccbf3fcc00fb52fd6e21df4b814edefc9f884780590a79d1393053bd25413f8_2 phases=1 bus1=node_418738046.2.4 conn=wye kv=0.1270 pf=1 pmpp=1.30 kva=1.30 irradiance=1 temperature=25 %cutin=20 %cutout=20 effcurve=MyEff P-TCurve=MyPvsT Daily=IRRAD_DIA TDaily=TEMP_DIA
New PVSystem.GD_2ccbf3fcc00fb52fd6e21df4b814edefc9f884780590a79d1393053bd25413f8_3 phases=1 bus1=node_418738046.3.4 conn=wye kv=0.1270 pf=1 pmpp=1.30 kva=1.30 irradiance=1 temperature=25 %cutin=20 %cutout=20 effcurve=MyEff P-TCurve=MyPvsT Daily=IRRAD_DIA TDaily=TEMP_DIA
New PVSystem.GD_573f9c6d62a2d22d5804b44ce7d8e4dedfe202a615f4f10d43ea75d7bea620da_1 phases=1 bus1=node_407846074.1.4 conn=wye kv=0.1270 pf=1 pmpp=1.46 kva=1.46 irradiance=1 temperature=25 %cutin=20 %cutout=20 effcurve=MyEff P-TCurve=MyPvsT Daily=IRRAD_DIA TDaily=TEMP_DIA
New PVSystem.GD_573f9c6d62a2d22d5804b44ce7d8e4dedfe202a615f4f10d43ea75d7bea620da_2 phases=1 bus1=node_407846074.2.4 conn=wye kv=0.1270 pf=1 pmpp=1.46 kva=1.46 irradiance=1 temperature=25 %cutin=20 %cutout=20 effcurve=MyEff P-TCurve=MyPvsT Daily=IRRAD_DIA TDaily=TEMP_DIA
New PVSystem.GD_573f9c6d62a2d22d5804b44ce7d8e4dedfe202a615f4f10d43ea75d7bea620da_3 phases=1 bus1=node_407846074.3.4 conn=wye kv=0.1270 pf=1 pmpp=1.46 kva=1.46 irradiance=1 temperature=25 %cutin=20 %cutout=20 effcurve=MyEff P-TCurve=MyPvsT Daily=IRRAD_DIA TDaily=TEMP_DIA
New PVSystem.GD_cddc9487f7cfd39e1848b1284105876034f470561f4540219681eec852462a04_1 phases=1 bus1=node_404863629.1.4 conn=wye kv=0.1270 pf=1 pmpp=0.16 kva=0.16 irradiance=1 temperature=25 %cutin=20 %cutout=20 effcurve=MyEff P-TCurve=MyPvsT Daily=IRRAD_DIA TDaily=TEMP_DIA
New PVSystem.GD_cddc9487f7cfd39e1848b1284105876034f470561f4540219681eec852462a04_2 phases=1 bus1=node_404863629.2.4 conn=wye kv=0.1270 pf=1 pmpp=0.16 kva=0.16 irradiance=1 temperature=25 %cutin=20 %cutout=20 effcurve=MyEff P-TCurve=MyPvsT Daily=IRRAD_DIA TDaily=TEMP_DIA
New PVSystem.GD_cddc9487f7cfd39e1848b1284105876034f470561f4540219681eec852462a04_3 phases=1 bus1=node_404863629.3.4 conn=wye kv=0.1270 pf=1 pmpp=0.16 kva=0.16 irradiance=1 temperature=25 %cutin=20 %cutout=20 effcurve=MyEff P-TCurve=MyPvsT Daily=IRRAD_DIA TDaily=TEMP_DIA
New PVSystem.GD_a626ff53998889d8552a33fb0be4ca039bafe4288544c29db6f5225fe267a024_1 phases=1 bus1=node_404863629.1.4 conn=wye kv=0.1270 pf=1 pmpp=2.61 kva=2.61 irradiance=1 temperature=25 %cutin=20 %cutout=20 effcurve=MyEff P-TCurve=MyPvsT Daily=IRRAD_DIA TDaily=TEMP_DIA
New PVSystem.GD_a626ff53998889d8552a33fb0be4ca039bafe4288544c29db6f5225fe267a024_2 phases=1 bus1=node_404863629.2.4 conn=wye kv=0.1270 pf=1 pmpp=2.61 kva=2.61 irradiance=1 temperature=25 %cutin=20 %cutout=20 effcurve=MyEff P-TCurve=MyPvsT Daily=IRRAD_DIA TDaily=TEMP_DIA
New PVSystem.GD_a626ff53998889d8552a33fb0be4ca039bafe4288544c29db6f5225fe267a024_3 phases=1 bus1=node_404863629.3.4 conn=wye kv=0.1270 pf=1 pmpp=2.61 kva=2.61 irradiance=1 temperature=25 %cutin=20 %cutout=20 effcurve=MyEff P-TCurve=MyPvsT Daily=IRRAD_DIA TDaily=TEMP_DIA
New PVSystem.GD_fd0f26d546dc1d9ded5e41d84ebac3b0e3fd9b71176e88e72cca84b0debbd587_1 phases=1 bus1=node_404863629.1.4 conn=wye kv=0.1270 pf=1 pmpp=1.09 kva=1.09 irradiance=1 temperature=25 %cutin=20 %cutout=20 effcurve=MyEff P-TCurve=MyPvsT Daily=IRRAD_DIA TDaily=TEMP_DIA
New PVSystem.GD_fd0f26d546dc1d9ded5e41d84ebac3b0e3fd9b71176e88e72cca84b0debbd587_2 phases=1 bus1=node_404863629.2.4 conn=wye kv=0.1270 pf=1 pmpp=1.09 kva=1.09 irradiance=1 temperature=25 %cutin=20 %cutout=20 effcurve=MyEff P-TCurve=MyPvsT Daily=IRRAD_DIA TDaily=TEMP_DIA
New PVSystem.GD_fd0f26d546dc1d9ded5e41d84ebac3b0e3fd9b71176e88e72cca84b0debbd587_3 phases=1 bus1=node_404863629.3.4 conn=wye kv=0.1270 pf=1 pmpp=1.09 kva=1.09 irradiance=1 temperature=25 %cutin=20 %cutout=20 effcurve=MyEff P-TCurve=MyPvsT Daily=IRRAD_DIA TDaily=TEMP_DIA
New PVSystem.GD_6fce78951caf20b4b954200ccfe0a4f928a29f81582c14338097cc23c9a9166a_1 phases=1 bus1=node_404863629.1.4 conn=wye kv=0.1270 pf=1 pmpp=0.72 kva=0.72 irradiance=1 temperature=25 %cutin=20 %cutout=20 effcurve=MyEff P-TCurve=MyPvsT Daily=IRRAD_DIA TDaily=TEMP_DIA
New PVSystem.GD_6fce78951caf20b4b954200ccfe0a4f928a29f81582c14338097cc23c9a9166a_2 phases=1 bus1=node_404863629.2.4 conn=wye kv=0.1270 pf=1 pmpp=0.72 kva=0.72 irradiance=1 temperature=25 %cutin=20 %cutout=20 effcurve=MyEff P-TCurve=MyPvsT Daily=IRRAD_DIA TDaily=TEMP_DIA
New PVSystem.GD_6fce78951caf20b4b954200ccfe0a4f928a29f81582c14338097cc23c9a9166a_3 phases=1 bus1=node_404863629.3.4 conn=wye kv=0.1270 pf=1 pmpp=0.72 kva=0.72 irradiance=1 temperature=25 %cutin=20 %cutout=20 effcurve=MyEff P-TCurve=MyPvsT Daily=IRRAD_DIA TDaily=TEMP_DIA
New PVSystem.GD_bc6ce1bc6b65dac47649c9bbad08e146489b67d26a24a433a3327eb74da120f4_1 phases=1 bus1=node_404862816.1.4 conn=wye kv=0.1270 pf=1 pmpp=2.75 kva=2.75 irradiance=1 temperature=25 %cutin=20 %cutout=20 effcurve=MyEff P-TCurve=MyPvsT Daily=IRRAD_DIA TDaily=TEMP_DIA
New PVSystem.GD_bc6ce1bc6b65dac47649c9bbad08e146489b67d26a24a433a3327eb74da120f4_2 phases=1 bus1=node_404862816.2.4 conn=wye kv=0.1270 pf=1 pmpp=2.75 kva=2.75 irradiance=1 temperature=25 %cutin=20 %cutout=20 effcurve=MyEff P-TCurve=MyPvsT Daily=IRRAD_DIA TDaily=TEMP_DIA
New PVSystem.GD_bc6ce1bc6b65dac47649c9bbad08e146489b67d26a24a433a3327eb74da120f4_3 phases=1 bus1=node_404862816.3.4 conn=wye kv=0.1270 pf=1 pmpp=2.75 kva=2.75 irradiance=1 temperature=25 %cutin=20 %cutout=20 effcurve=MyEff P-TCurve=MyPvsT Daily=IRRAD_DIA TDaily=TEMP_DIA
New PVSystem.GD_9b2a3d3335cf18f964c713de6cd6c9daac54b56ea3da04b4c6f2533c2a18a210_1 phases=1 bus1=node_404862816.1.4 conn=wye kv=0.1270 pf=1 pmpp=0.20 kva=0.20 irradiance=1 temperature=25 %cutin=20 %cutout=20 effcurve=MyEff P-TCurve=MyPvsT Daily=IRRAD_DIA TDaily=TEMP_DIA
New PVSystem.GD_9b2a3d3335cf18f964c713de6cd6c9daac54b56ea3da04b4c6f2533c2a18a210_2 phases=1 bus1=node_404862816.2.4 conn=wye kv=0.1270 pf=1 pmpp=0.20 kva=0.20 irradiance=1 temperature=25 %cutin=20 %cutout=20 effcurve=MyEff P-TCurve=MyPvsT Daily=IRRAD_DIA TDaily=TEMP_DIA
New PVSystem.GD_9b2a3d3335cf18f964c713de6cd6c9daac54b56ea3da04b4c6f2533c2a18a210_3 phases=1 bus1=node_404862816.3.4 conn=wye kv=0.1270 pf=1 pmpp=0.20 kva=0.20 irradiance=1 temperature=25 %cutin=20 %cutout=20 effcurve=MyEff P-TCurve=MyPvsT Daily=IRRAD_DIA TDaily=TEMP_DIA
New PVSystem.GD_50a13e2a8d6aae3f356a1233d0aba6d2f73c467e90f91e487921a803f1c9099d_1 phases=1 bus1=node_404862816.1.4 conn=wye kv=0.1270 pf=1 pmpp=0.44 kva=0.44 irradiance=1 temperature=25 %cutin=20 %cutout=20 effcurve=MyEff P-TCurve=MyPvsT Daily=IRRAD_DIA TDaily=TEMP_DIA
New PVSystem.GD_50a13e2a8d6aae3f356a1233d0aba6d2f73c467e90f91e487921a803f1c9099d_2 phases=1 bus1=node_404862816.2.4 conn=wye kv=0.1270 pf=1 pmpp=0.44 kva=0.44 irradiance=1 temperature=25 %cutin=20 %cutout=20 effcurve=MyEff P-TCurve=MyPvsT Daily=IRRAD_DIA TDaily=TEMP_DIA
New PVSystem.GD_50a13e2a8d6aae3f356a1233d0aba6d2f73c467e90f91e487921a803f1c9099d_3 phases=1 bus1=node_404862816.3.4 conn=wye kv=0.1270 pf=1 pmpp=0.44 kva=0.44 irradiance=1 temperature=25 %cutin=20 %cutout=20 effcurve=MyEff P-TCurve=MyPvsT Daily=IRRAD_DIA TDaily=TEMP_DIA
New PVSystem.GD_d02ea18ce6ab81c57828c623a835003091a648f71ed85873132e3d7e6c7ee625_1 phases=1 bus1=node_404862816.1.4 conn=wye kv=0.1270 pf=1 pmpp=0.28 kva=0.28 irradiance=1 temperature=25 %cutin=20 %cutout=20 effcurve=MyEff P-TCurve=MyPvsT Daily=IRRAD_DIA TDaily=TEMP_DIA
New PVSystem.GD_d02ea18ce6ab81c57828c623a835003091a648f71ed85873132e3d7e6c7ee625_2 phases=1 bus1=node_404862816.2.4 conn=wye kv=0.1270 pf=1 pmpp=0.28 kva=0.28 irradiance=1 temperature=25 %cutin=20 %cutout=20 effcurve=MyEff P-TCurve=MyPvsT Daily=IRRAD_DIA TDaily=TEMP_DIA
New PVSystem.GD_d02ea18ce6ab81c57828c623a835003091a648f71ed85873132e3d7e6c7ee625_3 phases=1 bus1=node_404862816.3.4 conn=wye kv=0.1270 pf=1 pmpp=0.28 kva=0.28 irradiance=1 temperature=25 %cutin=20 %cutout=20 effcurve=MyEff P-TCurve=MyPvsT Daily=IRRAD_DIA TDaily=TEMP_DIA
New PVSystem.GD_b437bd0ebb27ba865862609b977692dc488e1b6493504639a7d1ea914d87f615_1 phases=1 bus1=node_404862816.1.4 conn=wye kv=0.1270 pf=1 pmpp=0.72 kva=0.72 irradiance=1 temperature=25 %cutin=20 %cutout=20 effcurve=MyEff P-TCurve=MyPvsT Daily=IRRAD_DIA TDaily=TEMP_DIA
New PVSystem.GD_b437bd0ebb27ba865862609b977692dc488e1b6493504639a7d1ea914d87f615_2 phases=1 bus1=node_404862816.2.4 conn=wye kv=0.1270 pf=1 pmpp=0.72 kva=0.72 irradiance=1 temperature=25 %cutin=20 %cutout=20 effcurve=MyEff P-TCurve=MyPvsT Daily=IRRAD_DIA TDaily=TEMP_DIA
New PVSystem.GD_b437bd0ebb27ba865862609b977692dc488e1b6493504639a7d1ea914d87f615_3 phases=1 bus1=node_404862816.3.4 conn=wye kv=0.1270 pf=1 pmpp=0.72 kva=0.72 irradiance=1 temperature=25 %cutin=20 %cutout=20 effcurve=MyEff P-TCurve=MyPvsT Daily=IRRAD_DIA TDaily=TEMP_DIA
New PVSystem.GD_4a84e1226c55d5d7259ce337561b3ab956bd1e80fb5093890a9d067db13c1566_1 phases=1 bus1=node_404862816.1.4 conn=wye kv=0.1270 pf=1 pmpp=0.41 kva=0.41 irradiance=1 temperature=25 %cutin=20 %cutout=20 effcurve=MyEff P-TCurve=MyPvsT Daily=IRRAD_DIA TDaily=TEMP_DIA
New PVSystem.GD_4a84e1226c55d5d7259ce337561b3ab956bd1e80fb5093890a9d067db13c1566_2 phases=1 bus1=node_404862816.2.4 conn=wye kv=0.1270 pf=1 pmpp=0.41 kva=0.41 irradiance=1 temperature=25 %cutin=20 %cutout=20 effcurve=MyEff P-TCurve=MyPvsT Daily=IRRAD_DIA TDaily=TEMP_DIA
New PVSystem.GD_4a84e1226c55d5d7259ce337561b3ab956bd1e80fb5093890a9d067db13c1566_3 phases=1 bus1=node_404862816.3.4 conn=wye kv=0.1270 pf=1 pmpp=0.41 kva=0.41 irradiance=1 temperature=25 %cutin=20 %cutout=20 effcurve=MyEff P-TCurve=MyPvsT Daily=IRRAD_DIA TDaily=TEMP_DIA
New PVSystem.GD_585cc935e598a119a7c12027747873104f94f6349ee6c5a16e1867294c40a6c7_1 phases=1 bus1=node_404862816.1.4 conn=wye kv=0.1270 pf=1 pmpp=0.38 kva=0.38 irradiance=1 temperature=25 %cutin=20 %cutout=20 effcurve=MyEff P-TCurve=MyPvsT Daily=IRRAD_DIA TDaily=TEMP_DIA
New PVSystem.GD_585cc935e598a119a7c12027747873104f94f6349ee6c5a16e1867294c40a6c7_2 phases=1 bus1=node_404862816.2.4 conn=wye kv=0.1270 pf=1 pmpp=0.38 kva=0.38 irradiance=1 temperature=25 %cutin=20 %cutout=20 effcurve=MyEff P-TCurve=MyPvsT Daily=IRRAD_DIA TDaily=TEMP_DIA
New PVSystem.GD_585cc935e598a119a7c12027747873104f94f6349ee6c5a16e1867294c40a6c7_3 phases=1 bus1=node_404862816.3.4 conn=wye kv=0.1270 pf=1 pmpp=0.38 kva=0.38 irradiance=1 temperature=25 %cutin=20 %cutout=20 effcurve=MyEff P-TCurve=MyPvsT Daily=IRRAD_DIA TDaily=TEMP_DIA
New PVSystem.GD_f626c9e83a058e3a39963c1da829836117cb5c110455819b039e70ae733d5c47_1 phases=1 bus1=node_404862816.1.4 conn=wye kv=0.1270 pf=1 pmpp=0.51 kva=0.51 irradiance=1 temperature=25 %cutin=20 %cutout=20 effcurve=MyEff P-TCurve=MyPvsT Daily=IRRAD_DIA TDaily=TEMP_DIA
New PVSystem.GD_f626c9e83a058e3a39963c1da829836117cb5c110455819b039e70ae733d5c47_2 phases=1 bus1=node_404862816.2.4 conn=wye kv=0.1270 pf=1 pmpp=0.51 kva=0.51 irradiance=1 temperature=25 %cutin=20 %cutout=20 effcurve=MyEff P-TCurve=MyPvsT Daily=IRRAD_DIA TDaily=TEMP_DIA
New PVSystem.GD_f626c9e83a058e3a39963c1da829836117cb5c110455819b039e70ae733d5c47_3 phases=1 bus1=node_404862816.3.4 conn=wye kv=0.1270 pf=1 pmpp=0.51 kva=0.51 irradiance=1 temperature=25 %cutin=20 %cutout=20 effcurve=MyEff P-TCurve=MyPvsT Daily=IRRAD_DIA TDaily=TEMP_DIA
New PVSystem.GD_fe7f74f716f671a207b496a97d92a55942ed97a9ebf01bf64cee4269b100f054_1 phases=1 bus1=node_407985989.1.4 conn=wye kv=0.1270 pf=1 pmpp=4.84 kva=4.84 irradiance=1 temperature=25 %cutin=20 %cutout=20 effcurve=MyEff P-TCurve=MyPvsT Daily=IRRAD_DIA TDaily=TEMP_DIA
New PVSystem.GD_fe7f74f716f671a207b496a97d92a55942ed97a9ebf01bf64cee4269b100f054_2 phases=1 bus1=node_407985989.2.4 conn=wye kv=0.1270 pf=1 pmpp=4.84 kva=4.84 irradiance=1 temperature=25 %cutin=20 %cutout=20 effcurve=MyEff P-TCurve=MyPvsT Daily=IRRAD_DIA TDaily=TEMP_DIA
New PVSystem.GD_fe7f74f716f671a207b496a97d92a55942ed97a9ebf01bf64cee4269b100f054_3 phases=1 bus1=node_407985989.3.4 conn=wye kv=0.1270 pf=1 pmpp=4.84 kva=4.84 irradiance=1 temperature=25 %cutin=20 %cutout=20 effcurve=MyEff P-TCurve=MyPvsT Daily=IRRAD_DIA TDaily=TEMP_DIA
New PVSystem.GD_f228ae0d2eb2dcdf218cff668cf2215a31f729660f03bf824a8d15f8165e2bb2_1 phases=1 bus1=node_407985989.1.4 conn=wye kv=0.1270 pf=1 pmpp=10.16 kva=10.16 irradiance=1 temperature=25 %cutin=20 %cutout=20 effcurve=MyEff P-TCurve=MyPvsT Daily=IRRAD_DIA TDaily=TEMP_DIA
New PVSystem.GD_f228ae0d2eb2dcdf218cff668cf2215a31f729660f03bf824a8d15f8165e2bb2_2 phases=1 bus1=node_407985989.2.4 conn=wye kv=0.1270 pf=1 pmpp=10.16 kva=10.16 irradiance=1 temperature=25 %cutin=20 %cutout=20 effcurve=MyEff P-TCurve=MyPvsT Daily=IRRAD_DIA TDaily=TEMP_DIA
New PVSystem.GD_f228ae0d2eb2dcdf218cff668cf2215a31f729660f03bf824a8d15f8165e2bb2_3 phases=1 bus1=node_407985989.3.4 conn=wye kv=0.1270 pf=1 pmpp=10.16 kva=10.16 irradiance=1 temperature=25 %cutin=20 %cutout=20 effcurve=MyEff P-TCurve=MyPvsT Daily=IRRAD_DIA TDaily=TEMP_DIA
New PVSystem.GD_20f353c0880fd6a8084e30b64879ca2caeab1cc53ca7c5e6c08fd3256a872aec_1 phases=1 bus1=node_404861856.1.4 conn=wye kv=0.1270 pf=1 pmpp=1.00 kva=1.00 irradiance=1 temperature=25 %cutin=20 %cutout=20 effcurve=MyEff P-TCurve=MyPvsT Daily=IRRAD_DIA TDaily=TEMP_DIA
New PVSystem.GD_20f353c0880fd6a8084e30b64879ca2caeab1cc53ca7c5e6c08fd3256a872aec_2 phases=1 bus1=node_404861856.2.4 conn=wye kv=0.1270 pf=1 pmpp=1.00 kva=1.00 irradiance=1 temperature=25 %cutin=20 %cutout=20 effcurve=MyEff P-TCurve=MyPvsT Daily=IRRAD_DIA TDaily=TEMP_DIA
New PVSystem.GD_20f353c0880fd6a8084e30b64879ca2caeab1cc53ca7c5e6c08fd3256a872aec_3 phases=1 bus1=node_404861856.3.4 conn=wye kv=0.1270 pf=1 pmpp=1.00 kva=1.00 irradiance=1 temperature=25 %cutin=20 %cutout=20 effcurve=MyEff P-TCurve=MyPvsT Daily=IRRAD_DIA TDaily=TEMP_DIA
New PVSystem.GD_26c9e8c768f9bc80834843d29df116e39e65c102e4a33922412e58d0db9375f3_1 phases=1 bus1=node_404861856.1.4 conn=wye kv=0.1270 pf=1 pmpp=0.37 kva=0.37 irradiance=1 temperature=25 %cutin=20 %cutout=20 effcurve=MyEff P-TCurve=MyPvsT Daily=IRRAD_DIA TDaily=TEMP_DIA
New PVSystem.GD_26c9e8c768f9bc80834843d29df116e39e65c102e4a33922412e58d0db9375f3_2 phases=1 bus1=node_404861856.2.4 conn=wye kv=0.1270 pf=1 pmpp=0.37 kva=0.37 irradiance=1 temperature=25 %cutin=20 %cutout=20 effcurve=MyEff P-TCurve=MyPvsT Daily=IRRAD_DIA TDaily=TEMP_DIA
New PVSystem.GD_26c9e8c768f9bc80834843d29df116e39e65c102e4a33922412e58d0db9375f3_3 phases=1 bus1=node_404861856.3.4 conn=wye kv=0.1270 pf=1 pmpp=0.37 kva=0.37 irradiance=1 temperature=25 %cutin=20 %cutout=20 effcurve=MyEff P-TCurve=MyPvsT Daily=IRRAD_DIA TDaily=TEMP_DIA
New PVSystem.GD_3f2cb3ee3f6b8c375fc93133d8e8fa54c744718ae12fbeae925ca2f8de3876f7_1 phases=1 bus1=node_407847715.1.4 conn=wye kv=0.1270 pf=1 pmpp=0.98 kva=0.98 irradiance=1 temperature=25 %cutin=20 %cutout=20 effcurve=MyEff P-TCurve=MyPvsT Daily=IRRAD_DIA TDaily=TEMP_DIA
New PVSystem.GD_3f2cb3ee3f6b8c375fc93133d8e8fa54c744718ae12fbeae925ca2f8de3876f7_2 phases=1 bus1=node_407847715.2.4 conn=wye kv=0.1270 pf=1 pmpp=0.98 kva=0.98 irradiance=1 temperature=25 %cutin=20 %cutout=20 effcurve=MyEff P-TCurve=MyPvsT Daily=IRRAD_DIA TDaily=TEMP_DIA
New PVSystem.GD_3f2cb3ee3f6b8c375fc93133d8e8fa54c744718ae12fbeae925ca2f8de3876f7_3 phases=1 bus1=node_407847715.3.4 conn=wye kv=0.1270 pf=1 pmpp=0.98 kva=0.98 irradiance=1 temperature=25 %cutin=20 %cutout=20 effcurve=MyEff P-TCurve=MyPvsT Daily=IRRAD_DIA TDaily=TEMP_DIA
New PVSystem.GD_f0510b6d31900272822e174e07f665cebd032ad3d93c3e90e470f947c7cfe236_1 phases=1 bus1=node_407847715.1.4 conn=wye kv=0.1270 pf=1 pmpp=1.40 kva=1.40 irradiance=1 temperature=25 %cutin=20 %cutout=20 effcurve=MyEff P-TCurve=MyPvsT Daily=IRRAD_DIA TDaily=TEMP_DIA
New PVSystem.GD_f0510b6d31900272822e174e07f665cebd032ad3d93c3e90e470f947c7cfe236_2 phases=1 bus1=node_407847715.2.4 conn=wye kv=0.1270 pf=1 pmpp=1.40 kva=1.40 irradiance=1 temperature=25 %cutin=20 %cutout=20 effcurve=MyEff P-TCurve=MyPvsT Daily=IRRAD_DIA TDaily=TEMP_DIA
New PVSystem.GD_f0510b6d31900272822e174e07f665cebd032ad3d93c3e90e470f947c7cfe236_3 phases=1 bus1=node_407847715.3.4 conn=wye kv=0.1270 pf=1 pmpp=1.40 kva=1.40 irradiance=1 temperature=25 %cutin=20 %cutout=20 effcurve=MyEff P-TCurve=MyPvsT Daily=IRRAD_DIA TDaily=TEMP_DIA
New PVSystem.GD_b2398c11a4c23461feefd149db34b4b6c58615b60b98a8ab27d856a61a2e5d21_1 phases=1 bus1=node_407554466.1.4 conn=wye kv=0.1200 pf=1 pmpp=0.52 kva=0.52 irradiance=1 temperature=25 %cutin=20 %cutout=20 effcurve=MyEff P-TCurve=MyPvsT Daily=IRRAD_DIA TDaily=TEMP_DIA
New PVSystem.GD_b2398c11a4c23461feefd149db34b4b6c58615b60b98a8ab27d856a61a2e5d21_2 phases=1 bus1=node_407554466.2.4 conn=wye kv=0.1200 pf=1 pmpp=0.52 kva=0.52 irradiance=1 temperature=25 %cutin=20 %cutout=20 effcurve=MyEff P-TCurve=MyPvsT Daily=IRRAD_DIA TDaily=TEMP_DIA
New PVSystem.GD_591549c483da472436c584e71f023645d556a1db6d703ca8b96cd6cc88ea1c9f_1 phases=1 bus1=node_412566693.1.4 conn=wye kv=0.1200 pf=1 pmpp=0.36 kva=0.36 irradiance=1 temperature=25 %cutin=20 %cutout=20 effcurve=MyEff P-TCurve=MyPvsT Daily=IRRAD_DIA TDaily=TEMP_DIA
New PVSystem.GD_591549c483da472436c584e71f023645d556a1db6d703ca8b96cd6cc88ea1c9f_2 phases=1 bus1=node_412566693.2.4 conn=wye kv=0.1200 pf=1 pmpp=0.36 kva=0.36 irradiance=1 temperature=25 %cutin=20 %cutout=20 effcurve=MyEff P-TCurve=MyPvsT Daily=IRRAD_DIA TDaily=TEMP_DIA
New PVSystem.GD_26c11b857c88462719c5ea5573c88b6996dbcb9262035059a65f70e5975c2390_1 phases=1 bus1=node_404862822.1.4 conn=wye kv=0.1270 pf=1 pmpp=0.57 kva=0.57 irradiance=1 temperature=25 %cutin=20 %cutout=20 effcurve=MyEff P-TCurve=MyPvsT Daily=IRRAD_DIA TDaily=TEMP_DIA
New PVSystem.GD_26c11b857c88462719c5ea5573c88b6996dbcb9262035059a65f70e5975c2390_2 phases=1 bus1=node_404862822.2.4 conn=wye kv=0.1270 pf=1 pmpp=0.57 kva=0.57 irradiance=1 temperature=25 %cutin=20 %cutout=20 effcurve=MyEff P-TCurve=MyPvsT Daily=IRRAD_DIA TDaily=TEMP_DIA
New PVSystem.GD_26c11b857c88462719c5ea5573c88b6996dbcb9262035059a65f70e5975c2390_3 phases=1 bus1=node_404862822.3.4 conn=wye kv=0.1270 pf=1 pmpp=0.57 kva=0.57 irradiance=1 temperature=25 %cutin=20 %cutout=20 effcurve=MyEff P-TCurve=MyPvsT Daily=IRRAD_DIA TDaily=TEMP_DIA
New PVSystem.GD_696250fac3539f43c6d3665854c7d5560d7290324b26225a09efb4b55bebb6e4_1 phases=1 bus1=node_407986919.1.4 conn=wye kv=0.1270 pf=1 pmpp=0.93 kva=0.93 irradiance=1 temperature=25 %cutin=20 %cutout=20 effcurve=MyEff P-TCurve=MyPvsT Daily=IRRAD_DIA TDaily=TEMP_DIA
New PVSystem.GD_696250fac3539f43c6d3665854c7d5560d7290324b26225a09efb4b55bebb6e4_2 phases=1 bus1=node_407986919.2.4 conn=wye kv=0.1270 pf=1 pmpp=0.93 kva=0.93 irradiance=1 temperature=25 %cutin=20 %cutout=20 effcurve=MyEff P-TCurve=MyPvsT Daily=IRRAD_DIA TDaily=TEMP_DIA
New PVSystem.GD_696250fac3539f43c6d3665854c7d5560d7290324b26225a09efb4b55bebb6e4_3 phases=1 bus1=node_407986919.3.4 conn=wye kv=0.1270 pf=1 pmpp=0.93 kva=0.93 irradiance=1 temperature=25 %cutin=20 %cutout=20 effcurve=MyEff P-TCurve=MyPvsT Daily=IRRAD_DIA TDaily=TEMP_DIA
New PVSystem.GD_daa7aa14a3719339795f3df2b407d7d6a8a50d0fca094c2e4c7945baf3adfcda_1 phases=1 bus1=node_407986919.1.4 conn=wye kv=0.1270 pf=1 pmpp=1.33 kva=1.33 irradiance=1 temperature=25 %cutin=20 %cutout=20 effcurve=MyEff P-TCurve=MyPvsT Daily=IRRAD_DIA TDaily=TEMP_DIA
New PVSystem.GD_daa7aa14a3719339795f3df2b407d7d6a8a50d0fca094c2e4c7945baf3adfcda_2 phases=1 bus1=node_407986919.2.4 conn=wye kv=0.1270 pf=1 pmpp=1.33 kva=1.33 irradiance=1 temperature=25 %cutin=20 %cutout=20 effcurve=MyEff P-TCurve=MyPvsT Daily=IRRAD_DIA TDaily=TEMP_DIA
New PVSystem.GD_daa7aa14a3719339795f3df2b407d7d6a8a50d0fca094c2e4c7945baf3adfcda_3 phases=1 bus1=node_407986919.3.4 conn=wye kv=0.1270 pf=1 pmpp=1.33 kva=1.33 irradiance=1 temperature=25 %cutin=20 %cutout=20 effcurve=MyEff P-TCurve=MyPvsT Daily=IRRAD_DIA TDaily=TEMP_DIA
New PVSystem.GD_acded63485c68af9deb1b456b98e7b8ceed5d420e8f5e25a1b15f71940dd8592_1 phases=1 bus1=node_407986919.1.4 conn=wye kv=0.1270 pf=1 pmpp=6.44 kva=6.44 irradiance=1 temperature=25 %cutin=20 %cutout=20 effcurve=MyEff P-TCurve=MyPvsT Daily=IRRAD_DIA TDaily=TEMP_DIA
New PVSystem.GD_acded63485c68af9deb1b456b98e7b8ceed5d420e8f5e25a1b15f71940dd8592_2 phases=1 bus1=node_407986919.2.4 conn=wye kv=0.1270 pf=1 pmpp=6.44 kva=6.44 irradiance=1 temperature=25 %cutin=20 %cutout=20 effcurve=MyEff P-TCurve=MyPvsT Daily=IRRAD_DIA TDaily=TEMP_DIA
New PVSystem.GD_acded63485c68af9deb1b456b98e7b8ceed5d420e8f5e25a1b15f71940dd8592_3 phases=1 bus1=node_407986919.3.4 conn=wye kv=0.1270 pf=1 pmpp=6.44 kva=6.44 irradiance=1 temperature=25 %cutin=20 %cutout=20 effcurve=MyEff P-TCurve=MyPvsT Daily=IRRAD_DIA TDaily=TEMP_DIA
New PVSystem.GD_6ea5f93351d4003c9a28402a0dd17e751844df5753830a75350d54d488c7e93e_1 phases=1 bus1=node_407556167.1.4 conn=wye kv=0.1270 pf=1 pmpp=1.85 kva=1.85 irradiance=1 temperature=25 %cutin=20 %cutout=20 effcurve=MyEff P-TCurve=MyPvsT Daily=IRRAD_DIA TDaily=TEMP_DIA
New PVSystem.GD_6ea5f93351d4003c9a28402a0dd17e751844df5753830a75350d54d488c7e93e_2 phases=1 bus1=node_407556167.2.4 conn=wye kv=0.1270 pf=1 pmpp=1.85 kva=1.85 irradiance=1 temperature=25 %cutin=20 %cutout=20 effcurve=MyEff P-TCurve=MyPvsT Daily=IRRAD_DIA TDaily=TEMP_DIA
New PVSystem.GD_6ea5f93351d4003c9a28402a0dd17e751844df5753830a75350d54d488c7e93e_3 phases=1 bus1=node_407556167.3.4 conn=wye kv=0.1270 pf=1 pmpp=1.85 kva=1.85 irradiance=1 temperature=25 %cutin=20 %cutout=20 effcurve=MyEff P-TCurve=MyPvsT Daily=IRRAD_DIA TDaily=TEMP_DIA
New PVSystem.GD_d91defeea03e36c95650672d8af3a07373216736b1817fcfeb0e7197fa4001ec_1 phases=1 bus1=node_404863608.1.4 conn=wye kv=0.1270 pf=1 pmpp=0.65 kva=0.65 irradiance=1 temperature=25 %cutin=20 %cutout=20 effcurve=MyEff P-TCurve=MyPvsT Daily=IRRAD_DIA TDaily=TEMP_DIA
New PVSystem.GD_d91defeea03e36c95650672d8af3a07373216736b1817fcfeb0e7197fa4001ec_2 phases=1 bus1=node_404863608.2.4 conn=wye kv=0.1270 pf=1 pmpp=0.65 kva=0.65 irradiance=1 temperature=25 %cutin=20 %cutout=20 effcurve=MyEff P-TCurve=MyPvsT Daily=IRRAD_DIA TDaily=TEMP_DIA
New PVSystem.GD_d91defeea03e36c95650672d8af3a07373216736b1817fcfeb0e7197fa4001ec_3 phases=1 bus1=node_404863608.3.4 conn=wye kv=0.1270 pf=1 pmpp=0.65 kva=0.65 irradiance=1 temperature=25 %cutin=20 %cutout=20 effcurve=MyEff P-TCurve=MyPvsT Daily=IRRAD_DIA TDaily=TEMP_DIA
New PVSystem.GD_187df3ecf095c6adc8b151576c4b1a298d5f2a8c6165e2fe8c79ba2b9ab39d79_1 phases=1 bus1=node_407846263.1.4 conn=wye kv=0.1270 pf=1 pmpp=0.76 kva=0.76 irradiance=1 temperature=25 %cutin=20 %cutout=20 effcurve=MyEff P-TCurve=MyPvsT Daily=IRRAD_DIA TDaily=TEMP_DIA
New PVSystem.GD_187df3ecf095c6adc8b151576c4b1a298d5f2a8c6165e2fe8c79ba2b9ab39d79_2 phases=1 bus1=node_407846263.2.4 conn=wye kv=0.1270 pf=1 pmpp=0.76 kva=0.76 irradiance=1 temperature=25 %cutin=20 %cutout=20 effcurve=MyEff P-TCurve=MyPvsT Daily=IRRAD_DIA TDaily=TEMP_DIA
New PVSystem.GD_187df3ecf095c6adc8b151576c4b1a298d5f2a8c6165e2fe8c79ba2b9ab39d79_3 phases=1 bus1=node_407846263.3.4 conn=wye kv=0.1270 pf=1 pmpp=0.76 kva=0.76 irradiance=1 temperature=25 %cutin=20 %cutout=20 effcurve=MyEff P-TCurve=MyPvsT Daily=IRRAD_DIA TDaily=TEMP_DIA
New PVSystem.GD_4585f557a33550006a63ae49fbf169f6ab6191b65b47243a3dea5f141f25a8ac_1 phases=1 bus1=node_407846263.1.4 conn=wye kv=0.1270 pf=1 pmpp=0.39 kva=0.39 irradiance=1 temperature=25 %cutin=20 %cutout=20 effcurve=MyEff P-TCurve=MyPvsT Daily=IRRAD_DIA TDaily=TEMP_DIA
New PVSystem.GD_4585f557a33550006a63ae49fbf169f6ab6191b65b47243a3dea5f141f25a8ac_2 phases=1 bus1=node_407846263.2.4 conn=wye kv=0.1270 pf=1 pmpp=0.39 kva=0.39 irradiance=1 temperature=25 %cutin=20 %cutout=20 effcurve=MyEff P-TCurve=MyPvsT Daily=IRRAD_DIA TDaily=TEMP_DIA
New PVSystem.GD_4585f557a33550006a63ae49fbf169f6ab6191b65b47243a3dea5f141f25a8ac_3 phases=1 bus1=node_407846263.3.4 conn=wye kv=0.1270 pf=1 pmpp=0.39 kva=0.39 irradiance=1 temperature=25 %cutin=20 %cutout=20 effcurve=MyEff P-TCurve=MyPvsT Daily=IRRAD_DIA TDaily=TEMP_DIA
New PVSystem.GD_3e5ad438064e93d2d0efba2abd6dd042fd5d48969fafd50c27fdf17d3c7bb814_1 phases=1 bus1=node_407846578.1.4 conn=wye kv=0.1270 pf=1 pmpp=1.16 kva=1.16 irradiance=1 temperature=25 %cutin=20 %cutout=20 effcurve=MyEff P-TCurve=MyPvsT Daily=IRRAD_DIA TDaily=TEMP_DIA
New PVSystem.GD_3e5ad438064e93d2d0efba2abd6dd042fd5d48969fafd50c27fdf17d3c7bb814_2 phases=1 bus1=node_407846578.2.4 conn=wye kv=0.1270 pf=1 pmpp=1.16 kva=1.16 irradiance=1 temperature=25 %cutin=20 %cutout=20 effcurve=MyEff P-TCurve=MyPvsT Daily=IRRAD_DIA TDaily=TEMP_DIA
New PVSystem.GD_3e5ad438064e93d2d0efba2abd6dd042fd5d48969fafd50c27fdf17d3c7bb814_3 phases=1 bus1=node_407846578.3.4 conn=wye kv=0.1270 pf=1 pmpp=1.16 kva=1.16 irradiance=1 temperature=25 %cutin=20 %cutout=20 effcurve=MyEff P-TCurve=MyPvsT Daily=IRRAD_DIA TDaily=TEMP_DIA
New PVSystem.GD_4aeec38b9ba36110521ad6b97e4e369efdee7d486bce02fb563c8bfae1a3cf6d_1 phases=1 bus1=node_404862810.1.4 conn=wye kv=0.1200 pf=1 pmpp=0.79 kva=0.79 irradiance=1 temperature=25 %cutin=20 %cutout=20 effcurve=MyEff P-TCurve=MyPvsT Daily=IRRAD_DIA TDaily=TEMP_DIA
New PVSystem.GD_4aeec38b9ba36110521ad6b97e4e369efdee7d486bce02fb563c8bfae1a3cf6d_2 phases=1 bus1=node_404862810.2.4 conn=wye kv=0.1200 pf=1 pmpp=0.79 kva=0.79 irradiance=1 temperature=25 %cutin=20 %cutout=20 effcurve=MyEff P-TCurve=MyPvsT Daily=IRRAD_DIA TDaily=TEMP_DIA
New PVSystem.GD_9924eb6f30b091df59fa1a26aaeb2a44f9b2e95b181f3c344769a70684aae11b_1 phases=1 bus1=node_404862810.1.4 conn=wye kv=0.1200 pf=1 pmpp=0.69 kva=0.69 irradiance=1 temperature=25 %cutin=20 %cutout=20 effcurve=MyEff P-TCurve=MyPvsT Daily=IRRAD_DIA TDaily=TEMP_DIA
New PVSystem.GD_9924eb6f30b091df59fa1a26aaeb2a44f9b2e95b181f3c344769a70684aae11b_2 phases=1 bus1=node_404862810.2.4 conn=wye kv=0.1200 pf=1 pmpp=0.69 kva=0.69 irradiance=1 temperature=25 %cutin=20 %cutout=20 effcurve=MyEff P-TCurve=MyPvsT Daily=IRRAD_DIA TDaily=TEMP_DIA
New PVSystem.GD_02698f499afc6c4fb3401826312c6526ad44aeac80c17d6bb03462651700df86_1 phases=1 bus1=node_404861844.1.4 conn=wye kv=0.1270 pf=1 pmpp=0.41 kva=0.41 irradiance=1 temperature=25 %cutin=20 %cutout=20 effcurve=MyEff P-TCurve=MyPvsT Daily=IRRAD_DIA TDaily=TEMP_DIA
New PVSystem.GD_02698f499afc6c4fb3401826312c6526ad44aeac80c17d6bb03462651700df86_2 phases=1 bus1=node_404861844.2.4 conn=wye kv=0.1270 pf=1 pmpp=0.41 kva=0.41 irradiance=1 temperature=25 %cutin=20 %cutout=20 effcurve=MyEff P-TCurve=MyPvsT Daily=IRRAD_DIA TDaily=TEMP_DIA
New PVSystem.GD_02698f499afc6c4fb3401826312c6526ad44aeac80c17d6bb03462651700df86_3 phases=1 bus1=node_404861844.3.4 conn=wye kv=0.1270 pf=1 pmpp=0.41 kva=0.41 irradiance=1 temperature=25 %cutin=20 %cutout=20 effcurve=MyEff P-TCurve=MyPvsT Daily=IRRAD_DIA TDaily=TEMP_DIA
...
